/*--------------------------------*- C++ -*----------------------------------*\
| =========                 |                                                 |
| \\      /  F ield         | OpenFOAM: The Open Source CFD Toolbox           |
|  \\    /   O peration     | Version:  dev                                   |
|   \\  /    A nd           | Web:      www.OpenFOAM.org                      |
|    \\/     M anipulation  |                                                 |
\*---------------------------------------------------------------------------*/
FoamFile
{
    version     2.0;
    format      ascii;
    class       dictionary;
    location    "constant";
    object      populationaBalanceProperties;
}
// * * * * * * * * * * * * * * * * * * * * * * * * * * * * * * * * * * * * * //

<<<<<<< HEAD
populationBalanceModel univariatePopulationBalance;

univariatePopulationBalanceCoeffs
=======
populationBalanceModel univariate;

univariateCoeffs
>>>>>>> 732c5e01c23d931aeea9dd093ce6d7f6b0e3c5bf
{
    diffusionModel
    {
        diffusionModel  none;
    }

    aggregation on;

    aggregationKernel
    {
        aggregationKernel constant;
    }

    breakup on;

    breakupKernel
    {
        breakupKernel constant;
        Cb        Cb        [ 0 0 -1 0 0 0 0 ] 0.02;
    }

    daughterDistribution
    {
        daughterDistribution symmetricFragmentation;
    }

    growth off;

    growthModel
    {
        growthModel constant;

        Cg        Cg        [0 3 -1 0 0 0 0 ] 1.0;
    }
<<<<<<< HEAD
=======

    nucleation off;
    
    nucleationModel
    {
        nucleationModel  none;
    }
    
    interfaceModel off;
    
    ode on;    
    odeCoeffs
    {
        ATol    1.0e-8;
        RTol    1.0e-6;
        fac     0.8;
        facMin  1e-2;
        facMax  2.0;
    }
    odeSourceTerms
    {
        aggregation on;
        breakup     on;
        growth      off;
        nucleation  off;
    }
>>>>>>> 732c5e01c23d931aeea9dd093ce6d7f6b0e3c5bf
}





// ************************************************************************* //
