/*--------------------------------*- C++ -*----------------------------------*\
| =========                 |                                                 |
| \\      /  F ield         | OpenFOAM: The Open Source CFD Toolbox           |
|  \\    /   O peration     | Version:  2.3.0                                 |
|   \\  /    A nd           | Web:      www.OpenFOAM.org                      |
|    \\/     M anipulation  |                                                 |
\*---------------------------------------------------------------------------*/
FoamFile
{
    version     2.0;
    format      ascii;
    class       dictionary;
    location    "constant";
    object      populationaBalanceProperties;
}
// * * * * * * * * * * * * * * * * * * * * * * * * * * * * * * * * * * * * * //

populationBalanceModel univariatePopulationBalance;

univariatePopulationBalanceCoeffs
{
    aggregation on;
    
    aggregationKernel
    {
        aggregationKernel sum;
        
        Ca        Ca        [ 0 0 -1 0 0 0 0 ] 1.0;
        
        
        df                  1.8;
        lambdaf lambdaf     [ 0 1 0 0 0 0 0 ] 68.0e-9;
        nCarbonSoot         64;
    }
    
    breakup off;
    
    breakupKernel
    {
        breakupKernel LuoSvendsen;
        
        Cb        Cb        [ 0 0 0 0 0 0 0 ] 1.0e-3;
        epsilonExp          0.75;
        nuExp              -1.25;
        sizeExp             1.0;
    }
    
    daughterDistribution
    {
        daughterDistribution symmetricFragmentation;
    }
    
    diffusionModel
    {
        diffusionModel  none;
        gammaLam        gammaLam    [ 0 2 -1 0 0 0 0 ] 0.0001;
        Sc              0.7;
    }
    
    growth on;

    growthModel
    {
        growthModel HACA;

        //Cg        Cg        [0 3 -1 0 0 0 0 ] 1.0;
    }
    
    oxidation off;
    
    oxidationModel
    {
        oxidationModel reduction;
        cRed        0.001;
    }
    
    nucleation on;
    
    nucleationModel
    {
        nucleationModel Miller;

        nCarbonPAH          16;
        rhoSoot rhoSoot     [ 1 -3 0 0 0 0 0 ] 1800.0;
    }
}

// ************************************************************************* //
