/*--------------------------------*- C++ -*----------------------------------*\
| =========                 |                                                 |
| \\      /  F ield         | OpenFOAM: The Open Source CFD Toolbox           |
|  \\    /   O peration     | Version:  dev                                   |
|   \\  /    A nd           | Web:      www.OpenFOAM.org                      |
|    \\/     M anipulation  |                                                 |
\*---------------------------------------------------------------------------*/
FoamFile
{
    version     2.0;
    format      ascii;
    class       polyBoundaryMesh;
    location    "constant/polyMesh";
    object      boundary;
}
// * * * * * * * * * * * * * * * * * * * * * * * * * * * * * * * * * * * * * //

5
(
    fuel
    {
        type            patch;
        nFaces          0;
        startFace       3888;
    }
    wall
    {
        type            wall;
        inGroups        1(wall);
        nFaces          50;
        startFace       3888;
    }
    outlet
    {
        type            patch;
        nFaces          79;
        startFace       3938;
    }
    frontAndBack
    {
        type            empty;
        inGroups        1(empty);
        nFaces          3978;
        startFace       4017;
    }
    procBoundary3to2
    {
        type            processor;
        inGroups        1(processor);
        nFaces          51;
        startFace       7995;
        matchTolerance  0.0001;
        transform       unknown;
        myProcNo        3;
        neighbProcNo    2;
    }
)

// ************************************************************************* //
