/*--------------------------------*- C++ -*----------------------------------*\
| =========                 |                                                 |
| \\      /  F ield         | OpenFOAM: The Open Source CFD Toolbox           |
|  \\    /   O peration     | Version:  dev                                   |
|   \\  /    A nd           | Web:      www.OpenFOAM.org                      |
|    \\/     M anipulation  |                                                 |
\*---------------------------------------------------------------------------*/
FoamFile
{
    version     2.0;
    format      ascii;
    class       dictionary;
    object      controlDict;
}
// * * * * * * * * * * * * * * * * * * * * * * * * * * * * * * * * * * * * * //

application     pbeTransportFoam;

startFrom       latestTime;

startTime       0;

stopAt          endTime;

endTime         5000;

deltaT          10;

writeControl    adjustableRunTime;

writeInterval   10;

purgeWrite      10;

writeFormat     binary;

writePrecision  6;

writeCompression off;

timeFormat      general;

timePrecision   12;

runTimeModifiable true;

adjustTimeStep  yes;

maxCo           0.9;

maxDeltaT       10;

functions
<<<<<<< HEAD
{  
=======
{
>>>>>>> 732c5e01c23d931aeea9dd093ce6d7f6b0e3c5bf
    d43Average
    {
        functionObjectLibs ("libutilityFunctionObjects.so");
        type coded;
        redirectType integral;
        outputControl timeStep;
        code
        #{
<<<<<<< HEAD
        const volScalarField& m3 
                = mesh().lookupObject<volScalarField>("moment.3");
                
        const volScalarField& m4
                = mesh().lookupObject<volScalarField>("moment.4");
                
=======
        const volScalarField& m3
            = mesh().lookupObject<volScalarField>("moment.3.populationBalance");

        const volScalarField& m4
            = mesh().lookupObject<volScalarField>("moment.4.populationBalance");

>>>>>>> 732c5e01c23d931aeea9dd093ce6d7f6b0e3c5bf
        volScalarField d43(m4/m3);

        scalar volAverage = 0;
        scalar totalVolume = 0;

        forAll (d43, cellI)
        {
            totalVolume += mesh().V()[cellI];
        }

        forAll (d43, cellI)
        {
            volAverage += d43[cellI]*mesh().V()[cellI]/totalVolume;
        }

        Info<<"Volume averaged normalized d43: " << volAverage/(2.0e-6) << endl;

        #};
    }
}


// ************************************************************************* //
