/*--------------------------------*- C++ -*----------------------------------*\
| =========                 |                                                 |
| \\      /  F ield         | OpenFOAM: The Open Source CFD Toolbox           |
|  \\    /   O peration     | Version:  dev                                   |
|   \\  /    A nd           | Web:      www.OpenFOAM.org                      |
|    \\/     M anipulation  |                                                 |
\*---------------------------------------------------------------------------*/
FoamFile
{
    version     2.0;
    format      ascii;
    class       dictionary;
    object      fvSchemes;
}
// * * * * * * * * * * * * * * * * * * * * * * * * * * * * * * * * * * * * * //

ddtSchemes
{
    default Euler;
}

gradSchemes
{
    default         Gauss linear;
}

divSchemes
{
    default         none;

    div(phi,U)      bounded Gauss limitedLinearV 0.2;
    div(phi,K)      bounded Gauss limitedLinear 0.2;
    div(phi,e)      bounded Gauss limitedLinear 0.2;
    div(phi,h)      bounded Gauss limitedLinear 0.2;
    div(phi,k)      bounded Gauss limitedLinear 0.2;
    div(phi,epsilon) bounded Gauss limitedLinear 0.2;
    div(phi,R) bounded Gauss limitedLinear 0.2;
    div(phi,Ekp)    bounded Gauss limitedLinear 0.2;
    div(((rho*nuEff)*dev2(T(grad(U))))) Gauss linear;
    div(((rho*(thermo:mu|thermo:rho))*dev2(T(grad(U))))) Gauss linear;
    div((rho*R))    Gauss linear;
<<<<<<< HEAD
    "div\(phi,moment.*\)" Gauss upwind;
=======
    div(phi,moment) Gauss upwind;
>>>>>>> 732c5e01c23d931aeea9dd093ce6d7f6b0e3c5bf
}

laplacianSchemes
{
    default         Gauss linear uncorrected;
}

interpolationSchemes
{
    default         linear;
<<<<<<< HEAD
    
    "interpolate\(moment.*\)" upwind phi;
    
=======

    "interpolate\(moment.*\)" upwind phi;

>>>>>>> 732c5e01c23d931aeea9dd093ce6d7f6b0e3c5bf
    reconstruct(U)          upwind;
    reconstruct(weight)     upwind;
    reconstruct(abscissa)   upwind;
    reconstruct(sigma)      upwind;
}

snGradSchemes
{
    default         uncorrected;
}

wallDist
{
    method meshWave;
}


// ************************************************************************* //
