/*--------------------------------*- C++ -*----------------------------------*\
| =========                 |                                                 |
| \\      /  F ield         | OpenFOAM: The Open Source CFD Toolbox           |
|  \\    /   O peration     | Version:  dev                                   |
|   \\  /    A nd           | Web:      www.OpenFOAM.org                      |
|    \\/     M anipulation  |                                                 |
\*---------------------------------------------------------------------------*/
FoamFile
{
    version     2.0;
    format      binary;
    class       polyBoundaryMesh;
    location    "constant/polyMesh";
    object      boundary;
}
// * * * * * * * * * * * * * * * * * * * * * * * * * * * * * * * * * * * * * //

7
(
    inlet
    {
        type            symmetry;
        inGroups        1(symmetry);
        nFaces          0;
        startFace       1557;
    }
    outlet
    {
        type            wall;
        inGroups        1(wall);
        nFaces          18;
        startFace       1557;
    }
    outerWall
    {
        type            wall;
        inGroups        1(wall);
        nFaces          45;
        startFace       1575;
    }
    innerWall
    {
        type            wall;
        inGroups        1(wall);
        nFaces          45;
        startFace       1620;
    }
    wedge1
    {
        type            wedge;
        inGroups        1(wedge);
        nFaces          810;
        startFace       1665;
    }
    wedge2
    {
        type            wedge;
        inGroups        1(wedge);
        nFaces          810;
        startFace       2475;
    }
    procBoundary3to2
    {
        type            processor;
        inGroups        1(processor);
        nFaces          18;
        startFace       3285;
        matchTolerance  0.0001;
        transform       unknown;
        myProcNo        3;
        neighbProcNo    2;
    }
)

// ************************************************************************* //
