/*--------------------------------*- C++ -*----------------------------------*\
| =========                 |                                                 |
| \\      /  F ield         | OpenFOAM: The Open Source CFD Toolbox           |
|  \\    /   O peration     | Version:  dev                                   |
|   \\  /    A nd           | Web:      www.OpenFOAM.org                      |
|    \\/     M anipulation  |                                                 |
\*---------------------------------------------------------------------------*/
FoamFile
{
    version     2.0;
    format      ascii;
    class       dictionary;
    location    "system";
    object      fvSchemes;
}
// * * * * * * * * * * * * * * * * * * * * * * * * * * * * * * * * * * * * * //

ddtSchemes
{
    default         Euler;
}

gradSchemes
{
    default         Gauss linear;
}

divSchemes
{
    default         Gauss upwind;
    div(phi,U)      Gauss upwind;
    div(phi,h)      Gauss upwind;
    div(phi,e)      Gauss upwind;
    div(phi,k)      Gauss upwind;
    div(phi,epsilon) Gauss upwind;
    div(phi,R)      Gauss upwind;
    div(phiv,p)     Gauss linear;
    div(phi,K)      Gauss linear;
    div(phi,Ekp)    Gauss linear;
    div(R)          Gauss linear;
    div((rho*R))    Gauss linear;
    div(((rho*nuEff)*dev2(T(grad(U))))) Gauss linear;
    div(((rho*(thermo:mu|thermo:rho))*dev2(T(grad(U))))) Gauss linear;
<<<<<<< HEAD
=======
    div(phi,moment) Gauss upwind;
>>>>>>> 732c5e01c23d931aeea9dd093ce6d7f6b0e3c5bf
}

laplacianSchemes
{
    default         Gauss linear corrected;
}

interpolationSchemes
{
    default         linear;

    "interpolate\(moment.*\)" upwind phi;
<<<<<<< HEAD
    
=======

>>>>>>> 732c5e01c23d931aeea9dd093ce6d7f6b0e3c5bf
    reconstruct(U)          upwind;
    reconstruct(weight)     upwind;
    reconstruct(abscissa)   upwind;
    reconstruct(sigma)      upwind;
}

snGradSchemes
{
    default         corrected;
}

fluxRequired
{
    default         no;
    p_rgh;
}

wallDist
{
    method         meshWave;
}

// ************************************************************************* //
