/*--------------------------------*- C++ -*----------------------------------*\
| =========                 |                                                 |
| \\      /  F ield         | OpenFOAM: The Open Source CFD Toolbox           |
|  \\    /   O peration     | Version:  dev                                   |
|   \\  /    A nd           | Web:      www.OpenFOAM.org                      |
|    \\/     M anipulation  |                                                 |
\*---------------------------------------------------------------------------*/
FoamFile
{
    version     2.0;
    format      ascii;
    class       polyBoundaryMesh;
    location    "constant/polyMesh";
    object      boundary;
}
// * * * * * * * * * * * * * * * * * * * * * * * * * * * * * * * * * * * * * //

7
(
    front
    {
        type            wedge;
        inGroups        1(wedge);
        nFaces          13;
        startFace       12;
    }
    back
    {
        type            wedge;
        inGroups        1(wedge);
        nFaces          13;
        startFace       25;
    }
    wall
    {
        type            wall;
        inGroups        1(wall);
        nFaces          13;
        startFace       38;
    }
    fuel
    {
        type            patch;
        nFaces          0;
        startFace       51;
    }
    outlet
    {
        type            patch;
        nFaces          1;
        startFace       51;
    }
    axis
    {
        type            empty;
        inGroups        1(empty);
        nFaces          0;
        startFace       52;
    }
    procBoundary7to6
    {
        type            processor;
        inGroups        1(processor);
        nFaces          1;
        startFace       52;
        matchTolerance  0.0001;
        transform       unknown;
        myProcNo        7;
        neighbProcNo    6;
    }
)

// ************************************************************************* //
