/*--------------------------------*- C++ -*----------------------------------*\
| =========                 |                                                 |
| \\      /  F ield         | OpenFOAM: The Open Source CFD Toolbox           |
|  \\    /   O peration     | Version:  dev                                   |
|   \\  /    A nd           | Web:      www.OpenFOAM.org                      |
|    \\/     M anipulation  |                                                 |
\*---------------------------------------------------------------------------*/
FoamFile
{
    version     2.0;
    format      ascii;
    class       dictionary;
    location    "constant";
    object      populationaBalanceProperties;
}
// * * * * * * * * * * * * * * * * * * * * * * * * * * * * * * * * * * * * * //

<<<<<<< HEAD
populationBalanceModel univariatePopulationBalance;

univariatePopulationBalanceCoeffs
=======
populationBalanceModel univariate;

univariateCoeffs
>>>>>>> 732c5e01c23d931aeea9dd093ce6d7f6b0e3c5bf
{
    aggregation on;

    aggregationKernel
    {
        aggregationKernel hydrodynamic;

        Ca        Ca        [ 0 0 -1 0 0 0 0 ] 1.0;
    }

    breakup on;

    breakupKernel
    {
        breakupKernel exponential;

        expCoeff  expCoeff  [ 0 -3 0 0 0 0 0 ] 0.01;
        Cb        Cb        [ 0 0 -1 0 0 0 0 ] 0.1;
    }

    daughterDistribution
    {
        daughterDistribution symmetricFragmentation;
    }

    diffusionModel
    {
        diffusionModel  none;
    }

    growth off;

    growthModel
    {
        growthModel constant;

        Cg        Cg        [0 3 -1 0 0 0 0 ] 1.0;
    }
<<<<<<< HEAD
    
    nucleationModel
    {
        nucleationModel noNucleation;
    }
    
    oxidation off;
    
    oxidationModel
    {
        oxidationModel  reduction;
        
        cRed        0.005;
=======

    nucleationModel
    {
        nucleationModel  none;
>>>>>>> 732c5e01c23d931aeea9dd093ce6d7f6b0e3c5bf
    }
}





// ************************************************************************* //
