/*--------------------------------*- C++ -*----------------------------------*\
| =========                 |                                                 |
| \\      /  F ield         | OpenFOAM: The Open Source CFD Toolbox           |
|  \\    /   O peration     | Version:  dev                                   |
|   \\  /    A nd           | Web:      www.OpenFOAM.org                      |
|    \\/     M anipulation  |                                                 |
\*---------------------------------------------------------------------------*/
FoamFile
{
    version     2.0;
    format      binary;
    class       polyBoundaryMesh;
    location    "constant/polyMesh";
    object      boundary;
}
// * * * * * * * * * * * * * * * * * * * * * * * * * * * * * * * * * * * * * //

6
(
    inletXMinus
    {
        type            patch;
        nFaces          100;
        startFace       283361;
    }
    inletXPlus
    {
        type            patch;
        nFaces          100;
        startFace       283461;
    }
    inletYMinus
    {
        type            patch;
        nFaces          100;
        startFace       283561;
    }
    inletYPlus
    {
        type            patch;
        nFaces          100;
        startFace       283661;
    }
    outlet
    {
        type            patch;
        nFaces          665;
        startFace       283761;
    }
    walls
    {
        type            wall;
        inGroups        1(wall);
        nFaces          15353;
        startFace       284426;
    }
)

// ************************************************************************* //
