/*--------------------------------*- C++ -*----------------------------------*\
| =========                 |                                                 |
| \\      /  F ield         | OpenFOAM: The Open Source CFD Toolbox           |
|  \\    /   O peration     | Version:  dev                                   |
|   \\  /    A nd           | Web:      www.OpenFOAM.org                      |
|    \\/     M anipulation  |                                                 |
\*---------------------------------------------------------------------------*/
FoamFile
{
    version     2.0;
    format      ascii;
    class       polyBoundaryMesh;
    location    "constant/polyMesh";
    object      boundary;
}
// * * * * * * * * * * * * * * * * * * * * * * * * * * * * * * * * * * * * * //

6
(
    fuel
    {
        type            patch;
        nFaces          0;
        startFace       3902;
    }
    wall
    {
        type            wall;
        inGroups        1(wall);
        nFaces          0;
        startFace       3902;
    }
    outlet
    {
        type            patch;
        nFaces          80;
        startFace       3902;
    }
    frontAndBack
    {
        type            empty;
        inGroups        1(empty);
        nFaces          3994;
        startFace       3982;
    }
    procBoundary2to0
    {
        type            processor;
        inGroups        1(processor);
        nFaces          53;
        startFace       7976;
        matchTolerance  0.0001;
        transform       unknown;
        myProcNo        2;
        neighbProcNo    0;
    }
    procBoundary2to3
    {
        type            processor;
        inGroups        1(processor);
        nFaces          51;
        startFace       8029;
        matchTolerance  0.0001;
        transform       unknown;
        myProcNo        2;
        neighbProcNo    3;
    }
)

// ************************************************************************* //
