/*--------------------------------*- C++ -*----------------------------------*\
| =========                 |                                                 |
| \\      /  F ield         | OpenFOAM: The Open Source CFD Toolbox           |
|  \\    /   O peration     | Version:  dev                                   |
|   \\  /    A nd           | Web:      www.OpenFOAM.org                      |
|    \\/     M anipulation  |                                                 |
\*---------------------------------------------------------------------------*/
FoamFile
{
    version     2.0;
    format      ascii;
    class       dictionary;
    location    "system";
    object      fvSchemes;
}
// * * * * * * * * * * * * * * * * * * * * * * * * * * * * * * * * * * * * * //

ddtSchemes
{
    default         Euler;
}

gradSchemes
{
    default         Gauss linear;
}

divSchemes
{
    default         none;
<<<<<<< HEAD
=======
    div(phi,moment) upwind;
>>>>>>> 732c5e01c23d931aeea9dd093ce6d7f6b0e3c5bf
}

laplacianSchemes
{
    default         none;
}

interpolationSchemes
{
<<<<<<< HEAD
    default         none;
    
    "interpolate\(moment.*\)" linear;
    
    interpolate(U)          linear;
    
=======
    default         linear;

    "interpolate\(moment.*\)" linear;

    interpolate(U)          linear;

>>>>>>> 732c5e01c23d931aeea9dd093ce6d7f6b0e3c5bf
    reconstruct(U)          upwind;
    reconstruct(weight)     upwind;
    reconstruct(abscissa)   upwind;
    reconstruct(sigma)      upwind;
}

snGradSchemes
{
    default         corrected;
}

fluxRequired
{
    default         no;
    T               ;
}


// ************************************************************************* //
