/*--------------------------------*- C++ -*----------------------------------*\
| =========                 |                                                 |
| \\      /  F ield         | OpenFOAM: The Open Source CFD Toolbox           |
<<<<<<< HEAD
|  \\    /   O peration     | Version:  2.3.0                                 |
=======
|  \\    /   O peration     | Version:  dev                                   |
>>>>>>> 732c5e01c23d931aeea9dd093ce6d7f6b0e3c5bf
|   \\  /    A nd           | Web:      www.OpenFOAM.org                      |
|    \\/     M anipulation  |                                                 |
\*---------------------------------------------------------------------------*/
FoamFile
{
    version     2.0;
    format      ascii;
    class       dictionary;
    location    "constant";
    object      populationaBalanceProperties;
}
// * * * * * * * * * * * * * * * * * * * * * * * * * * * * * * * * * * * * * //

<<<<<<< HEAD
populationBalanceModel univariatePopulationBalance;

univariatePopulationBalanceCoeffs
{
    aggregation on;
    
    aggregationKernel
    {
        aggregationKernel sum;
        
        df                  2.0;
        lambdaf lambdaf     [ 0 1 0 0 0 0 0 ] 3.968e-6;
        abscissa0  abscissa0  [ 0 3 0 0 0 0 0 ] 4.2667e-8;
    }
    
    breakup on;
    
    breakupKernel
    {
        breakupKernel constant;
        
        Cb        Cb        [ 0 0 -1 0 0 0 0 ] 1.0e-3;
=======
populationBalanceModel univariate;

univariateCoeffs
{
    aggregation on;

    aggregationKernel
    {
        aggregationKernel turbulentBrownian;
    }

    breakup on;

    breakupKernel
    {
        breakupKernel LuoSvendsen;

        Cb        Cb        [ 0 0 0 0 0 0 0 ] 1.0e-3;
>>>>>>> 732c5e01c23d931aeea9dd093ce6d7f6b0e3c5bf
        epsilonExp          0.75;
        nuExp              -1.25;
        sizeExp             1.0;
    }
<<<<<<< HEAD
    
=======

>>>>>>> 732c5e01c23d931aeea9dd093ce6d7f6b0e3c5bf
    daughterDistribution
    {
        daughterDistribution symmetricFragmentation;
    }
<<<<<<< HEAD
    
    diffusionModel
    {
        diffusionModel  turbulentDiffusion;
        gammaLam        gammaLam    [ 0 2 -1 0 0 0 0 ] 0.0001;
        Sc              0.7;
    }
    
    convection off;

    convectionModel
    {
        convectionModel growthReduction;
        
        Xi              1.7e19;
    }
    
    nucleation off;
    
    nucleationModel
    {
        nucleationModel noNucleation;
        
        nCarbonPAM          16;
        nCarbonDimer        32;
        rhoSoot rhoSoot     [ 1 -3 0 0 0 0 0 ] 1800.0;
=======

    diffusionModel
    {
        diffusionModel  turbulentDiffusion;
        gammaLam        gammaLam    [ 0 2 -1 0 0 0 0 ] 1.0e-6;
        Sc              0.7;
    }

    growth off;

    growthModel
    {
        growthModel constant;

        Cg        Cg        [0 3 -1 0 0 0 0 ] 1.0;
    }

    nucleationModel
    {
        nucleationModel  none;
    }
    
    ode on;    
    odeCoeffs
    {
        ATol    1.0e-8;
        RTol    1.0e-6;
        fac     0.8;
        facMin  1e-2;
>>>>>>> 732c5e01c23d931aeea9dd093ce6d7f6b0e3c5bf
    }
}


// ************************************************************************* //
