/*--------------------------------*- C++ -*----------------------------------*\
| =========                 |                                                 |
| \\      /  F ield         | OpenFOAM: The Open Source CFD Toolbox           |
<<<<<<< HEAD
|  \\    /   O peration     | Version:  2.3.0                                 |
=======
|  \\    /   O peration     | Version:  dev                                   |
>>>>>>> 732c5e01c23d931aeea9dd093ce6d7f6b0e3c5bf
|   \\  /    A nd           | Web:      www.OpenFOAM.org                      |
|    \\/     M anipulation  |                                                 |
\*---------------------------------------------------------------------------*/
FoamFile
{
    version     2.0;
    format      ascii;
    class       dictionary;
    location    "constant";
    object      quadratureProperties;
}
// * * * * * * * * * * * * * * * * * * * * * * * * * * * * * * * * * * * * * //

moments
(
    (0)
    (1)
    (2)
    (3)
    (4)
);

nodes
(
    node0{}
    node1{}
);

extendedMomentInversionCoeff
{
    extendedMomentInversion     lognormal;
<<<<<<< HEAD
    
    maxSigmaIter        1000;
    momentsTol          1.0e-6;
    sigmaTol            1.0e-8;
    targetFunctionTol   1.0e-8;  
=======

    maxSigmaIter        1000;
    momentsTol          1.0e-6;
    sigmaTol            1.0e-8;
    sigmaMin            1.0e-8;
    targetFunctionTol   1.0e-8;
>>>>>>> 732c5e01c23d931aeea9dd093ce6d7f6b0e3c5bf
}

// ************************************************************************* //
