/*--------------------------------*- C++ -*----------------------------------*\
| =========                 |                                                 |
| \\      /  F ield         | OpenFOAM: The Open Source CFD Toolbox           |
|  \\    /   O peration     | Version:  dev                                   |
|   \\  /    A nd           | Web:      www.OpenFOAM.org                      |
|    \\/     M anipulation  |                                                 |
\*---------------------------------------------------------------------------*/
FoamFile
{
    version     2.0;
    format      ascii;
    class       dictionary;
    location    "constant";
    object      populationaBalanceProperties;
}
// * * * * * * * * * * * * * * * * * * * * * * * * * * * * * * * * * * * * * //

populationBalanceModel univariatePopulationBalance;

univariatePopulationBalanceCoeffs
{
    diffusionModel
    {
        diffusionModel  none;
    }

    aggregation on;

    aggregationKernel
    {
        aggregationKernel FNP;
        
        nUnimers    100;
        cellVol     cellVol [0 0 -3 0 0 0 0] 1e-28;
        siteVol     siteVol [0 0 -3 0 0 0 0]9.16e-28;
        alpha       1.0;
        na          10;
        nb          68;
        nuA         #calc "1.0/3.0";
        nuB         #calc "3.0/5.0";
        etaS    etaS    [1 -1 -1 0 0 0 0] 0.0021; 
        Xip     Xip     [0 0 0 0 0 0 0] 0.5;
        Xi0     Xi0     [0 0 0 0 0 0 0] 1.1;
    }

    breakup on;

    breakupKernel
    {
        breakupKernel constant;
        Cb        Cb        [ 0 0 -1 0 0 0 0 ] 0.02;
    }

    daughterDistribution
    {
        daughterDistribution symmetricFragmentation;
    }

    growth off;

    growthModel
    {
        growthModel constant;

        Cg        Cg        [0 3 -1 0 0 0 0 ] 1.0;
    }

    nucleationModel
    {
        nucleationModel  none;
    }
}





// ************************************************************************* //
