/*--------------------------------*- C++ -*----------------------------------*\
| =========                 |                                                 |
| \\      /  F ield         | OpenFOAM: The Open Source CFD Toolbox           |
|  \\    /   O peration     | Version:  dev                                   |
|   \\  /    A nd           | Web:      www.OpenFOAM.org                      |
|    \\/     M anipulation  |                                                 |
\*---------------------------------------------------------------------------*/
FoamFile
{
    version     2.0;
    format      ascii;
    class       polyBoundaryMesh;
    location    "constant/polyMesh";
    object      boundary;
}
// * * * * * * * * * * * * * * * * * * * * * * * * * * * * * * * * * * * * * //

4
(
    fuel
    {
        type            patch;
        nFaces          50;
        startFace       15790;
    }
    wall
    {
        type            wall;
        inGroups        1(wall);
        nFaces          50;
        startFace       15840;
    }
    outlet
    {
        type            patch;
        nFaces          320;
        startFace       15890;
    }
    frontAndBack
    {
        type            empty;
        inGroups        1(empty);
        nFaces          16000;
        startFace       16210;
    }
)

// ************************************************************************* //
