/*--------------------------------*- C++ -*----------------------------------*\
| =========                 |                                                 |
| \\      /  F ield         | OpenFOAM: The Open Source CFD Toolbox           |
|  \\    /   O peration     | Version:  dev                                   |
|   \\  /    A nd           | Web:      www.OpenFOAM.org                      |
|    \\/     M anipulation  |                                                 |
\*---------------------------------------------------------------------------*/
FoamFile
{
    version     2.0;
    format      binary;
    class       polyBoundaryMesh;
    location    "constant/polyMesh";
    object      boundary;
}
// * * * * * * * * * * * * * * * * * * * * * * * * * * * * * * * * * * * * * //

5
(
    fuel
    {
        type            patch;
        nFaces          0;
        startFace       467;
    }
    wall
    {
        type            wall;
        inGroups        1(wall);
        nFaces          20;
        startFace       467;
    }
    outlet
    {
        type            patch;
        nFaces          25;
        startFace       487;
    }
    frontAndBack
    {
        type            empty;
        inGroups        1(empty);
        nFaces          500;
        startFace       512;
    }
    procBoundary1to0
    {
        type            processor;
        inGroups        1(processor);
        nFaces          21;
        startFace       1012;
        matchTolerance  0.0001;
        transform       unknown;
        myProcNo        1;
        neighbProcNo    0;
    }
)

// ************************************************************************* //
